Version 4
SHEET 1 880 680
SYMBOL cap 112 128 R0
SYMATTR InstName C1
SYMATTR Value 100µF
