Version 4
SHEET 1 880 680
WIRE 224 80 192 80
WIRE 128 128 32 128
WIRE 336 128 192 128
WIRE 32 144 32 128
WIRE 336 160 336 128
WIRE 224 176 224 80
WIRE 224 176 192 176
WIRE 224 208 224 176
WIRE 32 304 32 224
WIRE 224 304 224 288
WIRE 224 304 32 304
WIRE 336 304 336 240
WIRE 336 304 224 304
WIRE 224 336 224 304
FLAG 224 336 0
SYMBOL MinedaLIB\\PMOS_MIN 128 128 R0
SYMATTR InstName M1
SYMATTR Value2 l=20u w=30u
SYMBOL voltage 32 128 R0
WINDOW 123 24 124 Left 2
WINDOW 39 0 0 Left 0
SYMATTR InstName V1
SYMATTR Value ""
SYMATTR Value2 AC 1
SYMBOL voltage 336 144 R0
SYMATTR InstName V2
SYMATTR Value 5
SYMBOL voltage 224 192 R0
SYMATTR InstName V3
SYMATTR Value {Vbias}
TEXT 264 328 Left 2 !.param Vbias=0
