Version 4
SHEET 1 956 680
WIRE 512 48 16 48
WIRE 512 80 512 48
WIRE 416 112 352 112
WIRE 16 144 16 128
WIRE 16 144 -48 144
WIRE 80 144 16 144
WIRE 176 144 160 144
WIRE 352 144 352 112
WIRE 352 144 176 144
WIRE 592 144 560 144
WIRE 608 144 592 144
WIRE 16 160 16 144
WIRE -48 176 -48 144
WIRE 416 176 352 176
WIRE 608 176 608 144
WIRE 352 208 352 176
WIRE 512 240 512 208
WIRE 512 240 16 240
WIRE 608 272 608 256
FLAG 592 144 out
FLAG 176 144 in
FLAG 608 272 0
FLAG 352 208 0
FLAG -48 176 0
SYMBOL op8_18 480 144 R0
SYMATTR InstName X1
SYMBOL voltage 16 32 R0
SYMATTR InstName V2
SYMATTR Value 2.5
SYMBOL voltage 176 144 R90
WINDOW 0 -32 56 VBottom 2
WINDOW 3 32 56 VTop 2
WINDOW 123 60 56 VTop 2
WINDOW 39 0 0 Left 0
SYMATTR InstName V1
SYMATTR Value SINE(0 1 1k)
SYMATTR Value2 AC 1
SYMBOL res 592 160 R0
SYMATTR InstName R3
SYMATTR Value 50k
SYMBOL voltage 16 144 R0
SYMATTR InstName V3
SYMATTR Value 2.5
TEXT -144 312 Left 2 !.include "%HOMEPATH%/KLayout/salt/PTS06/Technology/tech/models/MinedaPTS06_TT"
TEXT -144 336 Left 2 !;op
TEXT -40 384 Left 2 !.dc V1 0.6m 0.8m
TEXT -40 432 Left 2 !;ac dec 10 10 100k
